Version 4
SHEET 1 984 832
WIRE -64 -240 -240 -240
WIRE 352 -240 -64 -240
WIRE -240 48 -240 -240
WIRE 80 80 32 80
WIRE 352 80 352 -240
WIRE 352 80 304 80
WIRE 80 144 -96 144
WIRE 80 208 -32 208
WIRE 352 208 304 208
WIRE -64 272 -64 -240
WIRE 80 272 -64 272
WIRE 416 272 304 272
WIRE -32 336 -32 208
WIRE 624 336 -32 336
WIRE 864 336 624 336
WIRE 416 368 416 272
WIRE -96 384 -96 144
WIRE 352 384 352 208
WIRE 352 384 -96 384
WIRE 864 384 864 336
WIRE 624 400 624 336
WIRE -96 528 -96 384
WIRE 624 528 624 480
WIRE 624 528 -96 528
WIRE 864 544 864 464
WIRE 624 576 624 528
WIRE -240 688 -240 128
WIRE 32 688 32 80
WIRE 32 688 -240 688
WIRE 416 688 416 432
WIRE 416 688 32 688
WIRE 624 688 624 640
WIRE 624 688 416 688
WIRE 864 688 864 608
WIRE 864 688 624 688
WIRE -240 736 -240 688
FLAG -240 736 0
SYMBOL Misc\\NE555 192 176 R0
SYMATTR InstName U1
SYMBOL res 608 384 R0
SYMATTR InstName R2
SYMATTR Value 470K
SYMBOL res 848 368 R0
SYMATTR InstName R3
SYMATTR Value 1K
SYMBOL cap 608 576 R0
SYMATTR InstName C1
SYMATTR Value 0.5µ
SYMBOL LED 848 544 R0
SYMATTR InstName D1
SYMATTR Value PT-121-B
SYMBOL voltage -240 32 R0
WINDOW 123 0 0 Left 0
WINDOW 39 0 0 Left 0
SYMATTR InstName V1
SYMATTR Value 9
SYMBOL cap 400 368 R0
SYMATTR InstName C2
SYMATTR Value 100n
TEXT -256 816 Left 2 !.tran 0 10 0 10m
